Version 4
SHEET 1 1588 756
WIRE 768 -368 768 -384
WIRE 864 -368 768 -368
WIRE 768 -336 768 -368
WIRE 0 -320 -96 -320
WIRE 224 -320 224 -352
WIRE 224 -320 0 -320
WIRE 224 -288 224 -320
WIRE 592 -288 592 -352
WIRE 672 -288 592 -288
WIRE 704 -288 672 -288
WIRE 0 -272 0 -320
WIRE -96 -256 -96 -320
WIRE 592 -240 592 -288
WIRE 224 -160 224 -208
WIRE 336 -160 336 -224
WIRE 336 -160 224 -160
WIRE 400 -160 336 -160
WIRE -96 -144 -96 -176
WIRE -96 -144 -176 -144
WIRE 0 -144 0 -192
WIRE 480 -144 464 -144
WIRE 672 -144 672 -288
WIRE -96 -128 -96 -144
WIRE 400 -128 320 -128
WIRE 768 -128 768 -240
WIRE 928 -128 928 -320
WIRE 928 -128 768 -128
WIRE 1024 -128 928 -128
WIRE 1184 -128 1024 -128
WIRE 224 -112 224 -160
WIRE 480 -112 480 -144
WIRE 544 -112 480 -112
WIRE 592 -112 592 -176
WIRE 592 -112 544 -112
WIRE 592 -64 592 -112
WIRE 1024 -64 1024 -128
WIRE -96 -16 -96 -48
WIRE 320 -16 320 -128
WIRE 416 -16 320 -16
WIRE 544 -16 544 -112
WIRE 544 -16 480 -16
WIRE 768 -16 768 -128
WIRE 320 0 320 -16
WIRE 1184 16 1184 -128
WIRE 224 32 224 -32
WIRE 224 32 160 32
WIRE 592 32 592 0
WIRE 672 32 672 -64
WIRE 672 32 592 32
WIRE 704 32 672 32
WIRE 592 64 592 32
WIRE 928 64 928 -128
WIRE 160 96 160 32
WIRE 768 112 768 80
WIRE 864 112 768 112
WIRE 320 128 320 80
WIRE 352 128 320 128
WIRE 768 128 768 112
WIRE 1104 144 1104 96
WIRE 1184 144 1184 96
WIRE 1184 144 1104 144
WIRE -256 160 -256 96
WIRE -256 160 -352 160
WIRE 112 176 -48 176
WIRE 224 176 224 32
WIRE 224 176 176 176
WIRE 256 176 224 176
WIRE 400 176 320 176
WIRE 1184 192 1184 144
WIRE -352 208 -352 160
WIRE -256 208 -256 160
WIRE -48 288 -48 176
WIRE -16 288 -48 288
WIRE 80 288 64 288
WIRE 96 288 80 288
WIRE 208 288 176 288
WIRE 320 288 272 288
WIRE 1184 304 1184 272
WIRE 320 336 320 288
WIRE 80 352 80 288
WIRE -48 416 -48 288
WIRE 32 416 -48 416
WIRE 320 416 320 400
WIRE 320 416 128 416
WIRE 400 416 400 176
WIRE 400 416 320 416
WIRE -48 432 -48 416
WIRE 320 432 320 416
WIRE -48 528 -48 496
WIRE 320 528 320 496
FLAG -48 528 0
FLAG 320 528 0
FLAG 224 -352 X-Input
IOPIN 224 -352 In
FLAG 0 -144 0
FLAG -96 -16 0
FLAG -176 -144 uncorrected
FLAG -352 208 0
FLAG -256 288 Vss
FLAG 336 -224 gain-corrected
FLAG 592 -432 Vcc
FLAG 592 144 Vss
FLAG 768 -464 Vcc
FLAG 928 -416 Vcc
FLAG 768 208 Vss
FLAG 928 160 Vss
FLAG 1024 0 0
FLAG 160 96 0
FLAG -256 16 Vcc
FLAG 1184 304 0
FLAG 1184 -128 Output
IOPIN 1184 -128 Out
FLAG 1104 96 Feedback
FLAG 352 128 Feedback
FLAG 432 -112 Vcc
FLAG 432 -176 Vss
SYMBOL diode 176 160 R90
WINDOW 0 0 32 VBottom 2
WINDOW 3 32 32 VTop 2
SYMATTR InstName D1
SYMATTR Value 1N914
SYMBOL diode 320 160 R90
WINDOW 0 0 32 VBottom 2
WINDOW 3 32 32 VTop 2
SYMATTR InstName D2
SYMATTR Value 1N914
SYMBOL diode -32 496 R180
WINDOW 0 24 64 Left 2
WINDOW 3 24 0 Left 2
SYMATTR InstName D3
SYMATTR Value 1N914
SYMBOL diode 304 432 R0
SYMATTR InstName D4
SYMATTR Value 1N914
SYMBOL schottky 208 304 R270
WINDOW 0 32 32 VTop 2
WINDOW 3 0 32 VBottom 2
SYMATTR InstName D5
SYMATTR Value RB058LAM100
SYMATTR Description Diode
SYMATTR Type diode
SYMBOL schottky 304 336 R0
SYMATTR InstName D6
SYMATTR Value RB058LAM100
SYMATTR Description Diode
SYMATTR Type diode
SYMBOL npn 32 352 M90
SYMATTR InstName Q1
SYMATTR Value 2N4124
SYMBOL res 80 272 R90
WINDOW 0 0 56 VBottom 2
WINDOW 3 32 56 VTop 2
SYMATTR InstName R1
SYMATTR Value 5k6
SYMBOL res 192 272 R90
WINDOW 0 0 56 VBottom 2
WINDOW 3 32 56 VTop 2
SYMATTR InstName R2
SYMATTR Value 1k
SYMBOL res 208 -304 R0
SYMATTR InstName R3
SYMATTR Value 500
SYMBOL res 208 -128 R0
SYMATTR InstName R4
SYMATTR Value 500
SYMBOL voltage 0 -288 R0
SYMATTR InstName Input1
SYMATTR Value SINE(0 10 2k 0 0)
SYMATTR Value2 AC 1V
SYMBOL res -112 -272 R0
SYMATTR InstName R5
SYMATTR Value 500
SYMBOL res -112 -144 R0
SYMATTR InstName R6
SYMATTR Value 500
SYMBOL voltage -256 0 R0
SYMATTR InstName V1
SYMATTR Value 12
SYMBOL voltage -256 192 R0
SYMATTR InstName V2
SYMATTR Value 12
SYMBOL diode 576 -240 R0
SYMATTR InstName D7
SYMATTR Value 1N914
SYMBOL diode 576 -64 R0
SYMATTR InstName D8
SYMATTR Value 1N914
SYMBOL res 576 48 R0
SYMATTR InstName R7
SYMATTR Value 4.7k
SYMBOL res 576 -448 R0
SYMATTR InstName R8
SYMATTR Value 4.7k
SYMBOL npn 704 -336 R0
SYMATTR InstName Q2
SYMATTR Value 2N3904
SYMBOL res 752 -480 R0
SYMATTR InstName R9
SYMATTR Value 100
SYMBOL npn 864 64 R0
SYMATTR InstName Q3
SYMATTR Value 2N3055
SYMBOL res 752 112 R0
SYMATTR InstName R11
SYMATTR Value 100
SYMBOL pnp 704 80 M180
SYMATTR InstName Q4
SYMBOL pnp 864 -320 M180
SYMATTR InstName Q5
SYMATTR Value D45H11
SYMBOL res 304 -16 R0
SYMATTR InstName R14
SYMATTR Value 1k
SYMBOL cap 480 -32 R90
WINDOW 0 0 32 VBottom 2
WINDOW 3 32 32 VTop 2
SYMATTR InstName C1
SYMATTR Value 200p
SYMBOL cap 1008 -64 R0
SYMATTR InstName C2
SYMATTR Value 10n
SYMBOL res 656 -160 R0
SYMATTR InstName R15
SYMATTR Value 1k
SYMBOL ind 1168 0 R0
SYMATTR InstName L1
SYMATTR Value 60.65µ
SYMBOL res 1168 176 R0
SYMATTR InstName R16
SYMATTR Value 1
SYMBOL OpAmps/UniversalOpAmp 432 -144 M180
SYMATTR InstName U2
TEXT -216 -392 Left 2 !.tran 30ms
TEXT -352 -312 Left 2 ;.ac dec 1001 10 1000k
